Ident  = #Delft3D-FLOW  .03.02 3.42.00.17790#
Commnt =                  
Filcco = #natori_10_v1.0.grd#
Filgrd = #natori_10_v1.0.enc#
MNKmax = 975 326 1
Thick  =  1.0000000e+002
Commnt =                  
Fildep = #natori_10_v1.0.dep#
Commnt =                  
Commnt =                 no. dry points: 0
Commnt =                 no. thin dams: 0
Commnt =                  
Itdate = #2000-01-01#
Tunit  = #M#
Tstart =  0.0000000e+000
Tstop  =  1.8000000e+002
Dt     = 0.01
Tzone  = 0
Commnt =                  
Sub1   = #    #
Sub2   = #   #
Commnt =                  
Wnsvwp = #N#
Wndint = #Y#
Commnt =                  
Zeta0  =  0.0000000e+000
Commnt =                  
Commnt =                 no. open boundaries: 33
Filbnd = #natori_10_v4.bnd#
FilbcT = #natori_10_v3.bct#
Commnt =                  
Ag     =  9.8100000e+000
Rhow   =  1.0000000e+003
Tempw  =  1.5000000e+001
Salw   =  3.1000000e+001
Wstres =  1.0000000e-003  0.0000000e+000  3.0000000e-003  2.5000000e+001  3.0000000e-003  2.5000000e+001
Rhoa   =  1.0000000e+000
Betac  =  5.0000000e-001
Equili = #Y#
Ktemp  = 0
Fclou  =  0.0000000e+000
Sarea  =  0.0000000e+000
Temint = #Y#
Commnt =                  
Roumet = #M#
Ccofu  =  2.5000000e-002
Ccofv  =  2.5000000e-002
Xlo    =  0.0000000e+000
Vicouv =  1.0000000e+000
Dicouv =  1.0000000e+000
Htur2d = #N#
Irov   = 0
Commnt =                  
Iter   =      2
Dryflp = #YES#
Dpsopt = #DP#
Dpuopt = #MIN#
Dryflc =  1.0000000e-001
Dco    = -9.9900000e+002
Tlfsmo =  0.0000000e+000
ThetQH =  0.0000000e+000
Forfuv = #N#
Forfww = #N#
Sigcor = #N#
Trasol = #Cyclic-method#
Momsol = #Flood #
Dgcuni =  1.0000000e+003
Commnt =                  
Commnt =                 no. discharges: 0
Commnt =                 no. observation points: 80
Filsta = #natori_10_v1.obs#
Commnt =                 no. drogues: 0
Commnt =                  
Commnt =                  
Commnt =                 no. cross sections: 0
Commnt =                  
SMhydr = #YYYYY#     
SMderv = #YYYYYY#    
SMproc = #YYYYYYYYYY#
PMhydr = #YYYYYY#    
PMderv = #YYY#       
PMproc = #YYYYYYYYYY#
SHhydr = #YYYY#      
SHderv = #YYYYY#     
SHproc = #YYYYYYYYYY#
SHflux = #YYYY#      
PHhydr = #YYYYYY#    
PHderv = #YYY#       
PHproc = #YYYYYYYYYY#
PHflux = #YYYY#      
Commnt =                 attribute file fourier analyzed
Filfou = #natori_10_wlbnds.fou#
Online = #N#
Prhis  =  0.0000000e+000 0.0  1.8000000e+002
Flmap  =  0.0000000e+000 0.1  1.8000000e+002
Flhis  =  0.0000000e+000 0.1  1.8000000e+002
Flpp   =  0.0000000e+000 0.0  1.8000000e+002
Flrst  = 0
Commnt =                  
Alph0  = 100.000
Commnt =                  
