*
* Deltares, Delft3D-RGFGRID Version 4.18.01.18383, Sep  7 2011, 14:23:22
* File creation date: 2014-10-29, 13:36:07
*
Coordinate System = Cartesian
      11      11
 0 0 0
 ETA=    1   1.00000000000000000E+00   2.00000000000000000E+00   3.00000000000000000E+00   4.00000000000000000E+00   5.00000000000000000E+00
             6.00000000000000000E+00   7.00000000000000000E+00   8.00000000000000000E+00   9.00000000000000000E+00   1.00000000000000000E+01
             1.10000000000000000E+01
 ETA=    2   1.00000000000000000E+00   2.00000000000000000E+00   3.00000000000000000E+00   4.00000000000000000E+00   5.00000000000000000E+00
             6.00000000000000000E+00   7.00000000000000000E+00   8.00000000000000000E+00   9.00000000000000000E+00   1.00000000000000000E+01
             1.10000000000000000E+01
 ETA=    3   1.00000000000000000E+00   2.00000000000000000E+00   3.00000000000000000E+00   4.00000000000000000E+00   5.00000000000000000E+00
             6.00000000000000000E+00   7.00000000000000000E+00   8.00000000000000000E+00   9.00000000000000000E+00   1.00000000000000000E+01
             1.10000000000000000E+01
 ETA=    4   1.00000000000000000E+00   2.00000000000000000E+00   3.00000000000000000E+00   4.00000000000000000E+00   5.00000000000000000E+00
             6.00000000000000000E+00   7.00000000000000000E+00   8.00000000000000000E+00   9.00000000000000000E+00   1.00000000000000000E+01
             1.10000000000000000E+01
 ETA=    5   1.00000000000000000E+00   2.00000000000000000E+00   3.00000000000000000E+00   4.00000000000000000E+00   5.00000000000000000E+00
             6.00000000000000000E+00   7.00000000000000000E+00   8.00000000000000000E+00   9.00000000000000000E+00   1.00000000000000000E+01
             1.10000000000000000E+01
 ETA=    6   1.00000000000000000E+00   2.00000000000000000E+00   3.00000000000000000E+00   4.00000000000000000E+00   5.00000000000000000E+00
             6.00000000000000000E+00   7.00000000000000000E+00   8.00000000000000000E+00   9.00000000000000000E+00   1.00000000000000000E+01
             1.10000000000000000E+01
 ETA=    7   1.00000000000000000E+00   2.00000000000000000E+00   3.00000000000000000E+00   4.00000000000000000E+00   5.00000000000000000E+00
             6.00000000000000000E+00   7.00000000000000000E+00   8.00000000000000000E+00   9.00000000000000000E+00   1.00000000000000000E+01
             1.10000000000000000E+01
 ETA=    8   1.00000000000000000E+00   2.00000000000000000E+00   3.00000000000000000E+00   4.00000000000000000E+00   5.00000000000000000E+00
             6.00000000000000000E+00   7.00000000000000000E+00   8.00000000000000000E+00   9.00000000000000000E+00   1.00000000000000000E+01
             1.10000000000000000E+01
 ETA=    9   1.00000000000000000E+00   2.00000000000000000E+00   3.00000000000000000E+00   4.00000000000000000E+00   5.00000000000000000E+00
             6.00000000000000000E+00   7.00000000000000000E+00   8.00000000000000000E+00   9.00000000000000000E+00   1.00000000000000000E+01
             1.10000000000000000E+01
 ETA=   10   1.00000000000000000E+00   2.00000000000000000E+00   3.00000000000000000E+00   4.00000000000000000E+00   5.00000000000000000E+00
             6.00000000000000000E+00   7.00000000000000000E+00   8.00000000000000000E+00   9.00000000000000000E+00   1.00000000000000000E+01
             1.10000000000000000E+01
 ETA=   11   1.00000000000000000E+00   2.00000000000000000E+00   3.00000000000000000E+00   4.00000000000000000E+00   5.00000000000000000E+00
             6.00000000000000000E+00   7.00000000000000000E+00   8.00000000000000000E+00   9.00000000000000000E+00   1.00000000000000000E+01
             1.10000000000000000E+01
 ETA=    1   0.00000000000000000E+00   0.00000000000000000E+00   0.00000000000000000E+00   0.00000000000000000E+00   0.00000000000000000E+00
             0.00000000000000000E+00   0.00000000000000000E+00   0.00000000000000000E+00   0.00000000000000000E+00   0.00000000000000000E+00
             0.00000000000000000E+00
 ETA=    2   1.00000000000000000E+00   1.00000000000000000E+00   1.00000000000000000E+00   1.00000000000000000E+00   1.00000000000000000E+00
             1.00000000000000000E+00   1.00000000000000000E+00   1.00000000000000000E+00   1.00000000000000000E+00   1.00000000000000000E+00
             1.00000000000000000E+00
 ETA=    3   2.00000000000000000E+00   2.00000000000000000E+00   2.00000000000000000E+00   2.00000000000000000E+00   2.00000000000000000E+00
             2.00000000000000000E+00   2.00000000000000000E+00   2.00000000000000000E+00   2.00000000000000000E+00   2.00000000000000000E+00
             2.00000000000000000E+00
 ETA=    4   3.00000000000000000E+00   3.00000000000000000E+00   3.00000000000000000E+00   3.00000000000000000E+00   3.00000000000000000E+00
             3.00000000000000000E+00   3.00000000000000000E+00   3.00000000000000000E+00   3.00000000000000000E+00   3.00000000000000000E+00
             3.00000000000000000E+00
 ETA=    5   4.00000000000000000E+00   4.00000000000000000E+00   4.00000000000000000E+00   4.00000000000000000E+00   4.00000000000000000E+00
             4.00000000000000000E+00   4.00000000000000000E+00   4.00000000000000000E+00   4.00000000000000000E+00   4.00000000000000000E+00
             4.00000000000000000E+00
 ETA=    6   5.00000000000000000E+00   5.00000000000000000E+00   5.00000000000000000E+00   5.00000000000000000E+00   5.00000000000000000E+00
             5.00000000000000000E+00   5.00000000000000000E+00   5.00000000000000000E+00   5.00000000000000000E+00   5.00000000000000000E+00
             5.00000000000000000E+00
 ETA=    7   6.00000000000000000E+00   6.00000000000000000E+00   6.00000000000000000E+00   6.00000000000000000E+00   6.00000000000000000E+00
             6.00000000000000000E+00   6.00000000000000000E+00   6.00000000000000000E+00   6.00000000000000000E+00   6.00000000000000000E+00
             6.00000000000000000E+00
 ETA=    8   7.00000000000000000E+00   7.00000000000000000E+00   7.00000000000000000E+00   7.00000000000000000E+00   7.00000000000000000E+00
             7.00000000000000000E+00   7.00000000000000000E+00   7.00000000000000000E+00   7.00000000000000000E+00   7.00000000000000000E+00
             7.00000000000000000E+00
 ETA=    9   8.00000000000000000E+00   8.00000000000000000E+00   8.00000000000000000E+00   8.00000000000000000E+00   8.00000000000000000E+00
             8.00000000000000000E+00   8.00000000000000000E+00   8.00000000000000000E+00   8.00000000000000000E+00   8.00000000000000000E+00
             8.00000000000000000E+00
 ETA=   10   9.00000000000000000E+00   9.00000000000000000E+00   9.00000000000000000E+00   9.00000000000000000E+00   9.00000000000000000E+00
             9.00000000000000000E+00   9.00000000000000000E+00   9.00000000000000000E+00   9.00000000000000000E+00   9.00000000000000000E+00
             9.00000000000000000E+00
 ETA=   11   1.00000000000000000E+01   1.00000000000000000E+01   1.00000000000000000E+01   1.00000000000000000E+01   1.00000000000000000E+01
             1.00000000000000000E+01   1.00000000000000000E+01   1.00000000000000000E+01   1.00000000000000000E+01   1.00000000000000000E+01
             1.00000000000000000E+01
